<?xml version="1.0" encoding="UTF-8"?>

<!-- generated on 2025-08-03 02:24:14 by Eclipse SUMO netedit Version 1.22.0
-->

<routes xmlns:xsi="http://www.w3.org/2001/XMLSchema-instance" xsi:noNamespaceSchemaLocation="http://sumo.dlr.de/xsd/routes_file.xsd">
    <!-- VTypes -->
    <vType id="bus" vClass="bus" emissionClass="HBEFA3/PC_G_EU4" width="1.80" height="1.50" color="0,128,0"/>
    <vType id="motor" minGap="1.00" vClass="motorcycle" emissionClass="HBEFA3/LDV_G_EU6" width="1.80"/>
    <vType id="t_1"/>
    <vType id="truck" vClass="truck" emissionClass="HBEFA3/PC_G_EU4" width="1.80" height="1.50" color="222,175,44,0"/>
    <vTypeDistribution id="td_0" vTypes="DEFAULT_BIKETYPE bus motor t_1 truck" probabilities="0.10 0.10 0.40 0.30 0.10"/>
</routes>
