<?xml version="1.0" encoding="UTF-8"?>

<!-- generated on 2025-08-18 11:00:18.284313 by randomTrips.py v1_23_1+0000-676720d13f6
<configuration>
    <net-file value="phuquoc.net.xml"/>
    <output-trip-file value="phuquoc-demo.rou.xml"/>
    <trip-attributes value="type=&quot;td_0&quot; departLane=&quot;best&quot; departSpeed=&quot;max&quot; departPos=&quot;random&quot;"/>
    <lanes value="True"/>
    <insertion-rate value="15000.0"/>
</configuration>
-->

<routes xmlns:xsi="http://www.w3.org/2001/XMLSchema-instance" xsi:noNamespaceSchemaLocation="http://sumo.dlr.de/xsd/routes_file.xsd">
    <trip id="0" depart="0.00" from="721126897#14" to="-1117528627#1" type="td_0" departLane="best" departSpeed="max" departPos="random"/>
    <trip id="1" depart="0.24" from="-852629939" to="-723990055#4" type="td_0" departLane="best" departSpeed="max" departPos="random"/>
    <trip id="2" depart="0.48" from="721131937#6" to="721131934#5" type="td_0" departLane="best" departSpeed="max" departPos="random"/>
    <trip id="3" depart="0.72" from="722464592" to="-155315678#5" type="td_0" departLane="best" departSpeed="max" departPos="random"/>
    <trip id="4" depart="0.96" from="1149582046#0" to="-1135316109" type="td_0" departLane="best" departSpeed="max" departPos="random"/>
    <trip id="5" depart="1.20" from="-723990054" to="155315693#3" type="td_0" departLane="best" departSpeed="max" departPos="random"/>
    <trip id="6" depart="1.44" from="-1117528627#2" to="-721131943" type="td_0" departLane="best" departSpeed="max" departPos="random"/>
    <trip id="7" depart="1.68" from="721126897#4" to="271412010" type="td_0" departLane="best" departSpeed="max" departPos="random"/>
    <trip id="8" depart="1.92" from="-723990055#4" to="442885355#1" type="td_0" departLane="best" departSpeed="max" departPos="random"/>
    <trip id="9" depart="2.16" from="721131946#9" to="-100954129#4" type="td_0" departLane="best" departSpeed="max" departPos="random"/>
    <trip id="10" depart="2.40" from="721131946#8" to="721131937#10" type="td_0" departLane="best" departSpeed="max" departPos="random"/>
    <trip id="11" depart="2.64" from="1149578943" to="-31905214" type="td_0" departLane="best" departSpeed="max" departPos="random"/>
    <trip id="12" depart="2.88" from="778021896" to="1149578944" type="td_0" departLane="best" departSpeed="max" departPos="random"/>
    <trip id="13" depart="3.12" from="-155315693#2" to="-155315688#1" type="td_0" departLane="best" departSpeed="max" departPos="random"/>
    <trip id="14" depart="3.36" from="721131960#5" to="591704635#0" type="td_0" departLane="best" departSpeed="max" departPos="random"/>
    <trip id="15" depart="3.60" from="721131946#8" to="721131937#8" type="td_0" departLane="best" departSpeed="max" departPos="random"/>
    <trip id="16" depart="3.84" from="155775198#1" to="850817949" type="td_0" departLane="best" departSpeed="max" departPos="random"/>
    <trip id="17" depart="4.08" from="1149579537#1" to="31905181#4" type="td_0" departLane="best" departSpeed="max" departPos="random"/>
    <trip id="18" depart="4.32" from="721131958#1" to="708790255#0" type="td_0" departLane="best" departSpeed="max" departPos="random"/>
    <trip id="19" depart="4.56" from="721131963#1" to="442885101#0" type="td_0" departLane="best" departSpeed="max" departPos="random"/>
    <trip id="20" depart="4.80" from="721131937#1" to="-1149580108" type="td_0" departLane="best" departSpeed="max" departPos="random"/>
    <trip id="21" depart="5.04" from="-723990057#4" to="100954129#4" type="td_0" departLane="best" departSpeed="max" departPos="random"/>
    <trip id="22" depart="5.28" from="-155315678#4" to="-723990057#5" type="td_0" departLane="best" departSpeed="max" departPos="random"/>
    <trip id="23" depart="5.52" from="-155315695#0" to="-934254484#0" type="td_0" departLane="best" departSpeed="max" departPos="random"/>
    <trip id="24" depart="5.76" from="721126897#13" to="1149579536#7" type="td_0" departLane="best" departSpeed="max" departPos="random"/>
    <trip id="25" depart="6.00" from="1149579536#7" to="-722464595" type="td_0" departLane="best" departSpeed="max" departPos="random"/>
    <trip id="26" depart="6.24" from="-850817946" to="724005155#1" type="td_0" departLane="best" departSpeed="max" departPos="random"/>
    <trip id="27" depart="6.48" from="721126897#15" to="591704635#3" type="td_0" departLane="best" departSpeed="max" departPos="random"/>
    <trip id="28" depart="6.72" from="-442885355#2" to="721131937#6" type="td_0" departLane="best" departSpeed="max" departPos="random"/>
    <trip id="29" depart="6.96" from="-442885101#1" to="1149579537#4" type="td_0" departLane="best" departSpeed="max" departPos="random"/>
    <trip id="30" depart="7.20" from="857958820#1" to="721126897#15" type="td_0" departLane="best" departSpeed="max" departPos="random"/>
    <trip id="31" depart="7.44" from="31905181#4" to="721131934#7" type="td_0" departLane="best" departSpeed="max" departPos="random"/>
    <trip id="32" depart="7.68" from="721131960#4" to="721131946#3" type="td_0" departLane="best" departSpeed="max" departPos="random"/>
    <trip id="33" depart="7.92" from="-723990057#5" to="-1149576119" type="td_0" departLane="best" departSpeed="max" departPos="random"/>
    <trip id="34" depart="8.16" from="1119166765#1" to="-850817949" type="td_0" departLane="best" departSpeed="max" departPos="random"/>
    <trip id="35" depart="8.40" from="-722464597#2" to="724005155#5" type="td_0" departLane="best" departSpeed="max" departPos="random"/>
    <trip id="36" depart="8.64" from="721131966#0" to="1119166765#12" type="td_0" departLane="best" departSpeed="max" departPos="random"/>
    <trip id="37" depart="8.88" from="721126897#5" to="1149580107#2" type="td_0" departLane="best" departSpeed="max" departPos="random"/>
    <trip id="38" depart="9.12" from="722466950" to="152227691#2" type="td_0" departLane="best" departSpeed="max" departPos="random"/>
    <trip id="39" depart="9.36" from="-850817945" to="-724005155#8" type="td_0" departLane="best" departSpeed="max" departPos="random"/>
    <trip id="40" depart="9.60" from="31905190#1" to="-850817945" type="td_0" departLane="best" departSpeed="max" departPos="random"/>
    <trip id="41" depart="9.84" from="406038877" to="722464597#0" type="td_0" departLane="best" departSpeed="max" departPos="random"/>
    <trip id="42" depart="10.08" from="1149580107#2" to="-722466951" type="td_0" departLane="best" departSpeed="max" departPos="random"/>
    <trip id="43" depart="10.32" from="934254484#1" to="155315694#3" type="td_0" departLane="best" departSpeed="max" departPos="random"/>
    <trip id="44" depart="10.56" from="-155315688#1" to="-1149580109" type="td_0" departLane="best" departSpeed="max" departPos="random"/>
    <trip id="45" depart="10.80" from="-155315719#0" to="721126897#13" type="td_0" departLane="best" departSpeed="max" departPos="random"/>
    <trip id="46" depart="11.04" from="721131946#5" to="1307054560#1" type="td_0" departLane="best" departSpeed="max" departPos="random"/>
    <trip id="47" depart="11.28" from="-1307054560#3" to="1149579537#4" type="td_0" departLane="best" departSpeed="max" departPos="random"/>
    <trip id="48" depart="11.52" from="934254484#0" to="155775198#1" type="td_0" departLane="best" departSpeed="max" departPos="random"/>
    <trip id="49" depart="11.76" from="850817945" to="721131963#3" type="td_0" departLane="best" departSpeed="max" departPos="random"/>
    <trip id="50" depart="12.00" from="-100954163#9" to="721131937#5" type="td_0" departLane="best" departSpeed="max" departPos="random"/>
    <trip id="51" depart="12.24" from="721131934#4" to="163652291" type="td_0" departLane="best" departSpeed="max" departPos="random"/>
    <trip id="52" depart="12.48" from="-850817946" to="721126897#15" type="td_0" departLane="best" departSpeed="max" departPos="random"/>
    <trip id="53" depart="12.72" from="-155315719#1" to="152227686#3" type="td_0" departLane="best" departSpeed="max" departPos="random"/>
    <trip id="54" depart="12.96" from="152227691#10" to="778021895" type="td_0" departLane="best" departSpeed="max" departPos="random"/>
    <trip id="55" depart="13.20" from="721131966#0" to="-850817945" type="td_0" departLane="best" departSpeed="max" departPos="random"/>
    <trip id="56" depart="13.44" from="155315678#5" to="-442885359#0" type="td_0" departLane="best" departSpeed="max" departPos="random"/>
    <trip id="57" depart="13.68" from="722466948" to="721131966#1" type="td_0" departLane="best" departSpeed="max" departPos="random"/>
    <trip id="58" depart="13.92" from="1056899464#0" to="721126897#15" type="td_0" departLane="best" departSpeed="max" departPos="random"/>
    <trip id="59" depart="14.16" from="591704635#0" to="-31905201#2" type="td_0" departLane="best" departSpeed="max" departPos="random"/>
    <trip id="60" depart="14.40" from="721131943" to="205021436#0" type="td_0" departLane="best" departSpeed="max" departPos="random"/>
    <trip id="61" depart="14.64" from="721131946#15" to="155775198#1" type="td_0" departLane="best" departSpeed="max" departPos="random"/>
    <trip id="62" depart="14.88" from="-100954129#0" to="1119166765#6" type="td_0" departLane="best" departSpeed="max" departPos="random"/>
    <trip id="63" depart="15.12" from="-1117528626#1" to="723990057#7" type="td_0" departLane="best" departSpeed="max" departPos="random"/>
    <trip id="64" depart="15.36" from="721131966#0" to="721131960#4" type="td_0" departLane="best" departSpeed="max" departPos="random"/>
    <trip id="65" depart="15.60" from="1117528627#0" to="-1270367191#1" type="td_0" departLane="best" departSpeed="max" departPos="random"/>
    <trip id="66" depart="15.84" from="721131966#0" to="724005155#9" type="td_0" departLane="best" departSpeed="max" departPos="random"/>
    <trip id="67" depart="16.08" from="-155315682" to="152227697#4" type="td_0" departLane="best" departSpeed="max" departPos="random"/>
    <trip id="68" depart="16.32" from="-1307054560#5" to="721131946#14" type="td_0" departLane="best" departSpeed="max" departPos="random"/>
    <trip id="69" depart="16.56" from="721131946#11" to="-155775198#5" type="td_0" departLane="best" departSpeed="max" departPos="random"/>
    <trip id="70" depart="16.80" from="152227691#6" to="31905181#1" type="td_0" departLane="best" departSpeed="max" departPos="random"/>
    <trip id="71" depart="17.04" from="-850817945" to="721131966#1" type="td_0" departLane="best" departSpeed="max" departPos="random"/>
    <trip id="72" depart="17.28" from="1270367191#0" to="-722464597#1" type="td_0" departLane="best" departSpeed="max" departPos="random"/>
    <trip id="73" depart="17.52" from="155775198#5" to="721131937#8" type="td_0" departLane="best" departSpeed="max" departPos="random"/>
    <trip id="74" depart="17.76" from="-721131961" to="1119166765#12" type="td_0" departLane="best" departSpeed="max" departPos="random"/>
    <trip id="75" depart="18.00" from="934254484#0" to="721126897#7" type="td_0" departLane="best" departSpeed="max" departPos="random"/>
    <trip id="76" depart="18.24" from="1307054560#5" to="155315711" type="td_0" departLane="best" departSpeed="max" departPos="random"/>
    <trip id="77" depart="18.48" from="-155775198#0" to="-723990056" type="td_0" departLane="best" departSpeed="max" departPos="random"/>
    <trip id="78" depart="18.72" from="1149578009" to="442885101#2" type="td_0" departLane="best" departSpeed="max" departPos="random"/>
    <trip id="79" depart="18.96" from="-723990057#5" to="-723990054" type="td_0" departLane="best" departSpeed="max" departPos="random"/>
    <trip id="80" depart="19.20" from="-152227686#0" to="721126897#13" type="td_0" departLane="best" departSpeed="max" departPos="random"/>
    <trip id="81" depart="19.44" from="-723990057#5" to="722466947" type="td_0" departLane="best" departSpeed="max" departPos="random"/>
    <trip id="82" depart="19.68" from="721131963#0" to="-1307054560#4" type="td_0" departLane="best" departSpeed="max" departPos="random"/>
    <trip id="83" depart="19.92" from="-724005155#0" to="721131934#3" type="td_0" departLane="best" departSpeed="max" departPos="random"/>
    <trip id="84" depart="20.16" from="-722466950" to="-155775200#1" type="td_0" departLane="best" departSpeed="max" departPos="random"/>
    <trip id="85" depart="20.40" from="723990058" to="350424623#3" type="td_0" departLane="best" departSpeed="max" departPos="random"/>
    <trip id="86" depart="20.64" from="152227691#5" to="721131946#5" type="td_0" departLane="best" departSpeed="max" departPos="random"/>
    <trip id="87" depart="20.88" from="721131946#8" to="-721131939" type="td_0" departLane="best" departSpeed="max" departPos="random"/>
    <trip id="88" depart="21.12" from="-155315694#2" to="152227686#1" type="td_0" departLane="best" departSpeed="max" departPos="random"/>
    <trip id="89" depart="21.36" from="1270367191#0" to="152227691#5" type="td_0" departLane="best" departSpeed="max" departPos="random"/>
    <trip id="90" depart="21.60" from="721131937#5" to="721131934#4" type="td_0" departLane="best" departSpeed="max" departPos="random"/>
    <trip id="91" depart="21.84" from="857958820#0" to="-155315688#1" type="td_0" departLane="best" departSpeed="max" departPos="random"/>
    <trip id="92" depart="22.08" from="1149580107#3" to="1149578945" type="td_0" departLane="best" departSpeed="max" departPos="random"/>
    <trip id="93" depart="22.32" from="721131963#1" to="-724005155#9" type="td_0" departLane="best" departSpeed="max" departPos="random"/>
    <trip id="94" depart="22.56" from="-721131940" to="152227691#12" type="td_0" departLane="best" departSpeed="max" departPos="random"/>
    <trip id="95" depart="22.80" from="1149582046#0" to="-934254484#1" type="td_0" departLane="best" departSpeed="max" departPos="random"/>
    <trip id="96" depart="23.04" from="-766326315" to="723990057#4" type="td_0" departLane="best" departSpeed="max" departPos="random"/>
    <trip id="97" depart="23.28" from="152227686#3" to="721131963#3" type="td_0" departLane="best" departSpeed="max" departPos="random"/>
    <trip id="98" depart="23.52" from="271412010" to="-1149580308" type="td_0" departLane="best" departSpeed="max" departPos="random"/>
    <trip id="99" depart="23.76" from="934254484#2" to="721131960#5" type="td_0" departLane="best" departSpeed="max" departPos="random"/>
    <trip id="100" depart="24.00" from="850699983#1" to="723990057#5" type="td_0" departLane="best" departSpeed="max" departPos="random"/>
    <trip id="101" depart="24.24" from="721131960#5" to="-442885101#1" type="td_0" departLane="best" departSpeed="max" departPos="random"/>
    <trip id="102" depart="24.48" from="152227691#8" to="-722464597#2" type="td_0" departLane="best" departSpeed="max" departPos="random"/>
    <trip id="103" depart="24.72" from="1149580107#2" to="-1270367191#1" type="td_0" departLane="best" departSpeed="max" departPos="random"/>
    <trip id="104" depart="24.96" from="1149579537#2" to="857958820#0" type="td_0" departLane="best" departSpeed="max" departPos="random"/>
    <trip id="105" depart="25.20" from="-850817945" to="721131946#5" type="td_0" departLane="best" departSpeed="max" departPos="random"/>
    <trip id="106" depart="25.44" from="152227691#10" to="1307054560#2" type="td_0" departLane="best" departSpeed="max" departPos="random"/>
    <trip id="107" depart="25.68" from="778021896" to="934254484#0" type="td_0" departLane="best" departSpeed="max" departPos="random"/>
    <trip id="108" depart="25.92" from="31905181#1" to="721131937#5" type="td_0" departLane="best" departSpeed="max" departPos="random"/>
    <trip id="109" depart="26.16" from="-322191552" to="1056899464#0" type="td_0" departLane="best" departSpeed="max" departPos="random"/>
    <trip id="110" depart="26.40" from="850699983#1" to="442885101#0" type="td_0" departLane="best" departSpeed="max" departPos="random"/>
    <trip id="111" depart="26.64" from="155775198#6" to="721131941" type="td_0" departLane="best" departSpeed="max" departPos="random"/>
    <trip id="112" depart="26.88" from="-1270367191#2" to="442885101#1" type="td_0" departLane="best" departSpeed="max" departPos="random"/>
    <trip id="113" depart="27.12" from="155315680#0" to="721131963#1" type="td_0" departLane="best" departSpeed="max" departPos="random"/>
    <trip id="114" depart="27.36" from="-442885101#0" to="827332719" type="td_0" departLane="best" departSpeed="max" departPos="random"/>
    <trip id="115" depart="27.60" from="-155315678#4" to="-721131933#1" type="td_0" departLane="best" departSpeed="max" departPos="random"/>
    <trip id="116" depart="27.84" from="442885101#2" to="721131934#5" type="td_0" departLane="best" departSpeed="max" departPos="random"/>
    <trip id="117" depart="28.08" from="-724005148" to="-155315719#8" type="td_0" departLane="best" departSpeed="max" departPos="random"/>
    <trip id="118" depart="28.32" from="722464592" to="-724005155#8" type="td_0" departLane="best" departSpeed="max" departPos="random"/>
    <trip id="119" depart="28.56" from="442885101#2" to="708790255#0" type="td_0" departLane="best" departSpeed="max" departPos="random"/>
    <trip id="120" depart="28.80" from="1149581388" to="442885101#1" type="td_0" departLane="best" departSpeed="max" departPos="random"/>
    <trip id="121" depart="29.04" from="155315695#2" to="724005148" type="td_0" departLane="best" departSpeed="max" departPos="random"/>
    <trip id="122" depart="29.28" from="-721131967" to="721131937#2" type="td_0" departLane="best" departSpeed="max" departPos="random"/>
    <trip id="123" depart="29.52" from="-724005155#3" to="1149580107#2" type="td_0" departLane="best" departSpeed="max" departPos="random"/>
    <trip id="124" depart="29.76" from="721131934#0" to="1056899464#2" type="td_0" departLane="best" departSpeed="max" departPos="random"/>
    <trip id="125" depart="30.00" from="1119166765#1" to="721131943" type="td_0" departLane="best" departSpeed="max" departPos="random"/>
    <trip id="126" depart="30.24" from="-152227686#1" to="152227691#2" type="td_0" departLane="best" departSpeed="max" departPos="random"/>
    <trip id="127" depart="30.48" from="934254484#2" to="934254484#0" type="td_0" departLane="best" departSpeed="max" departPos="random"/>
    <trip id="128" depart="30.72" from="-152227686#2" to="-722464597#2" type="td_0" departLane="best" departSpeed="max" departPos="random"/>
    <trip id="129" depart="30.96" from="-850817945" to="723990059" type="td_0" departLane="best" departSpeed="max" departPos="random"/>
    <trip id="130" depart="31.20" from="721131968" to="722464591#3" type="td_0" departLane="best" departSpeed="max" departPos="random"/>
    <trip id="131" depart="31.44" from="1149579536#7" to="-322191552" type="td_0" departLane="best" departSpeed="max" departPos="random"/>
    <trip id="132" depart="31.68" from="721131958#1" to="721131937#12" type="td_0" departLane="best" departSpeed="max" departPos="random"/>
    <trip id="133" depart="31.92" from="591704635#3" to="857958820#0" type="td_0" departLane="best" departSpeed="max" departPos="random"/>
    <trip id="134" depart="32.16" from="721126897#5" to="-100954129#5" type="td_0" departLane="best" departSpeed="max" departPos="random"/>
    <trip id="135" depart="32.40" from="721131954#0" to="1056899464#2" type="td_0" departLane="best" departSpeed="max" departPos="random"/>
    <trip id="136" depart="32.64" from="721126897#7" to="724005155#10" type="td_0" departLane="best" departSpeed="max" departPos="random"/>
    <trip id="137" depart="32.88" from="-205021436#0" to="-155315719#0" type="td_0" departLane="best" departSpeed="max" departPos="random"/>
    <trip id="138" depart="33.12" from="-155315695#4" to="31905190#0" type="td_0" departLane="best" departSpeed="max" departPos="random"/>
    <trip id="139" depart="33.36" from="-851342126" to="591704635#0" type="td_0" departLane="best" departSpeed="max" departPos="random"/>
    <trip id="140" depart="33.60" from="721131937#13" to="-721131961" type="td_0" departLane="best" departSpeed="max" departPos="random"/>
    <trip id="141" depart="33.84" from="721126897#13" to="-850817945" type="td_0" departLane="best" departSpeed="max" departPos="random"/>
    <trip id="142" depart="34.08" from="152227691#9" to="722464599#0" type="td_0" departLane="best" departSpeed="max" departPos="random"/>
    <trip id="143" depart="34.32" from="721131960#4" to="-155315682" type="td_0" departLane="best" departSpeed="max" departPos="random"/>
    <trip id="144" depart="34.56" from="1270367191#0" to="-934254484#0" type="td_0" departLane="best" departSpeed="max" departPos="random"/>
    <trip id="145" depart="34.80" from="-100954129#1" to="721131946#2" type="td_0" departLane="best" departSpeed="max" departPos="random"/>
    <trip id="146" depart="35.04" from="721126897#14" to="-850760537#1" type="td_0" departLane="best" departSpeed="max" departPos="random"/>
    <trip id="147" depart="35.28" from="721131937#8" to="31905181#4" type="td_0" departLane="best" departSpeed="max" departPos="random"/>
    <trip id="148" depart="35.52" from="1307054560#0" to="-100954163#8" type="td_0" departLane="best" departSpeed="max" departPos="random"/>
    <trip id="149" depart="35.76" from="-152227686#6" to="722464591#3" type="td_0" departLane="best" departSpeed="max" departPos="random"/>
    <trip id="150" depart="36.00" from="722464597#2" to="271412010" type="td_0" departLane="best" departSpeed="max" departPos="random"/>
    <trip id="151" depart="36.24" from="721131958#1" to="442885101#1" type="td_0" departLane="best" departSpeed="max" departPos="random"/>
    <trip id="152" depart="36.48" from="-31905195#2" to="-155775198#5" type="td_0" departLane="best" departSpeed="max" departPos="random"/>
    <trip id="153" depart="36.72" from="1117528627#1" to="722464597#0" type="td_0" departLane="best" departSpeed="max" departPos="random"/>
    <trip id="154" depart="36.96" from="721131946#5" to="721131963#3" type="td_0" departLane="best" departSpeed="max" departPos="random"/>
    <trip id="155" depart="37.20" from="722464593#1" to="-722464595" type="td_0" departLane="best" departSpeed="max" departPos="random"/>
    <trip id="156" depart="37.44" from="-766326315" to="-155315694#3" type="td_0" departLane="best" departSpeed="max" departPos="random"/>
    <trip id="157" depart="37.68" from="721131946#2" to="722464591#3" type="td_0" departLane="best" departSpeed="max" departPos="random"/>
    <trip id="158" depart="37.92" from="1149580107#4" to="721126897#12" type="td_0" departLane="best" departSpeed="max" departPos="random"/>
    <trip id="159" depart="38.16" from="-322191552" to="723990057#7" type="td_0" departLane="best" departSpeed="max" departPos="random"/>
    <trip id="160" depart="38.40" from="721131963#1" to="851342124" type="td_0" departLane="best" departSpeed="max" departPos="random"/>
    <trip id="161" depart="38.64" from="721131946#9" to="722464591#3" type="td_0" departLane="best" departSpeed="max" departPos="random"/>
    <trip id="162" depart="38.88" from="-1117528627#1" to="721131937#9" type="td_0" departLane="best" departSpeed="max" departPos="random"/>
    <trip id="163" depart="39.12" from="1119166765#6" to="723990058" type="td_0" departLane="best" departSpeed="max" departPos="random"/>
    <trip id="164" depart="39.36" from="721131946#8" to="721131966#0" type="td_0" departLane="best" departSpeed="max" departPos="random"/>
    <trip id="165" depart="39.60" from="721131946#9" to="-850817949" type="td_0" departLane="best" departSpeed="max" departPos="random"/>
    <trip id="166" depart="39.84" from="721131946#3" to="-155315695#1" type="td_0" departLane="best" departSpeed="max" departPos="random"/>
    <trip id="167" depart="40.08" from="721131963#3" to="721131963#3" type="td_0" departLane="best" departSpeed="max" departPos="random"/>
    <trip id="168" depart="40.32" from="-723990056" to="721131954#2" type="td_0" departLane="best" departSpeed="max" departPos="random"/>
    <trip id="169" depart="40.56" from="152227691#13" to="1119166765#1" type="td_0" departLane="best" departSpeed="max" departPos="random"/>
    <trip id="170" depart="40.80" from="721131946#5" to="-723990057#2" type="td_0" departLane="best" departSpeed="max" departPos="random"/>
    <trip id="171" depart="41.04" from="-1117528627#1" to="-721131941" type="td_0" departLane="best" departSpeed="max" departPos="random"/>
    <trip id="172" depart="41.28" from="1119166765#6" to="721131966#0" type="td_0" departLane="best" departSpeed="max" departPos="random"/>
    <trip id="173" depart="41.52" from="850475200" to="-934254484#1" type="td_0" departLane="best" departSpeed="max" departPos="random"/>
    <trip id="174" depart="41.76" from="721126897#14" to="1149580107#3" type="td_0" departLane="best" departSpeed="max" departPos="random"/>
    <trip id="175" depart="42.00" from="852629939" to="155775198#6" type="td_0" departLane="best" departSpeed="max" departPos="random"/>
    <trip id="176" depart="42.24" from="724005155#1" to="-155315719#0" type="td_0" departLane="best" departSpeed="max" departPos="random"/>
    <trip id="177" depart="42.48" from="850817945" to="-442885359#0" type="td_0" departLane="best" departSpeed="max" departPos="random"/>
    <trip id="178" depart="42.72" from="850475200" to="-850817946" type="td_0" departLane="best" departSpeed="max" departPos="random"/>
    <trip id="179" depart="42.96" from="-155315711" to="152227686#3" type="td_0" departLane="best" departSpeed="max" departPos="random"/>
    <trip id="180" depart="43.20" from="721131937#2" to="1119166765#12" type="td_0" departLane="best" departSpeed="max" departPos="random"/>
    <trip id="181" depart="43.44" from="591704635#0" to="155315695#0" type="td_0" departLane="best" departSpeed="max" departPos="random"/>
    <trip id="182" depart="43.68" from="1149579537#4" to="350539817#0" type="td_0" departLane="best" departSpeed="max" departPos="random"/>
    <trip id="183" depart="43.92" from="-827332718" to="721131937#13" type="td_0" departLane="best" departSpeed="max" departPos="random"/>
    <trip id="184" depart="44.16" from="-100954129#0" to="723990057#5" type="td_0" departLane="best" departSpeed="max" departPos="random"/>
    <trip id="185" depart="44.40" from="155775198#4" to="721131937#5" type="td_0" departLane="best" departSpeed="max" departPos="random"/>
    <trip id="186" depart="44.64" from="721131937#8" to="721131934#4" type="td_0" departLane="best" departSpeed="max" departPos="random"/>
    <trip id="187" depart="44.88" from="1149579536#5" to="-1307054560#4" type="td_0" departLane="best" departSpeed="max" departPos="random"/>
    <trip id="188" depart="45.12" from="721126897#7" to="1149576119" type="td_0" departLane="best" departSpeed="max" departPos="random"/>
    <trip id="189" depart="45.36" from="1119166764#0" to="721131963#0" type="td_0" departLane="best" departSpeed="max" departPos="random"/>
    <trip id="190" depart="45.60" from="721131937#13" to="1056899464#2" type="td_0" departLane="best" departSpeed="max" departPos="random"/>
    <trip id="191" depart="45.84" from="1117528627#1" to="1149580109" type="td_0" departLane="best" departSpeed="max" departPos="random"/>
    <trip id="192" depart="46.08" from="1149580107#3" to="1056899464#0" type="td_0" departLane="best" departSpeed="max" departPos="random"/>
    <trip id="193" depart="46.32" from="-155775198#6" to="1307054560#0" type="td_0" departLane="best" departSpeed="max" departPos="random"/>
    <trip id="194" depart="46.56" from="724005155#1" to="721131934#5" type="td_0" departLane="best" departSpeed="max" departPos="random"/>
    <trip id="195" depart="46.80" from="722464597#0" to="592032565" type="td_0" departLane="best" departSpeed="max" departPos="random"/>
    <trip id="196" depart="47.04" from="1056899464#1" to="31905181#0" type="td_0" departLane="best" departSpeed="max" departPos="random"/>
    <trip id="197" depart="47.28" from="-100954129#0" to="100954129#2" type="td_0" departLane="best" departSpeed="max" departPos="random"/>
    <trip id="198" depart="47.52" from="1307054560#1" to="442885101#0" type="td_0" departLane="best" departSpeed="max" departPos="random"/>
    <trip id="199" depart="47.76" from="721126897#5" to="152227691#5" type="td_0" departLane="best" departSpeed="max" departPos="random"/>
    <trip id="200" depart="48.00" from="152227686#2" to="-722464597#2" type="td_0" departLane="best" departSpeed="max" departPos="random"/>
    <trip id="201" depart="48.24" from="152227691#5" to="722464597#2" type="td_0" departLane="best" departSpeed="max" departPos="random"/>
    <trip id="202" depart="48.48" from="721131946#5" to="-442885101#2" type="td_0" departLane="best" departSpeed="max" departPos="random"/>
    <trip id="203" depart="48.72" from="-155315682" to="155315695#4" type="td_0" departLane="best" departSpeed="max" departPos="random"/>
    <trip id="204" depart="48.96" from="721126897#13" to="1149578943" type="td_0" departLane="best" departSpeed="max" departPos="random"/>
    <trip id="205" depart="49.20" from="721131954#0" to="721131943" type="td_0" departLane="best" departSpeed="max" departPos="random"/>
    <trip id="206" depart="49.44" from="721131934#0" to="-723990056" type="td_0" departLane="best" departSpeed="max" departPos="random"/>
    <trip id="207" depart="49.68" from="-721131956" to="-1117528627#1" type="td_0" departLane="best" departSpeed="max" departPos="random"/>
    <trip id="208" depart="49.92" from="-724005155#8" to="152227691#8" type="td_0" departLane="best" departSpeed="max" departPos="random"/>
    <trip id="209" depart="50.16" from="721131960#5" to="-1307054560#5" type="td_0" departLane="best" departSpeed="max" departPos="random"/>
    <trip id="210" depart="50.40" from="1149580110" to="721126897#13" type="td_0" departLane="best" departSpeed="max" departPos="random"/>
    <trip id="211" depart="50.64" from="-721131943" to="721131937#10" type="td_0" departLane="best" departSpeed="max" departPos="random"/>