<?xml version="1.0" encoding="UTF-8"?>

<!-- generated on 2025-08-22 17:51:45.674161 by randomTrips.py v1_24_0+0000-b72eb3fabc8
<configuration>
    <net-file value="phuquoc.net.xml"/>
    <output-trip-file value="phuquoc-demo.rou.xml"/>
    <trip-attributes value="type=&quot;td_0&quot; departLane=&quot;best&quot; departSpeed=&quot;max&quot; departPos=&quot;random&quot;"/>
    <lanes value="True"/>
    <insertion-rate value="10000.0"/>
</configuration>
-->

<routes xmlns:xsi="http://www.w3.org/2001/XMLSchema-instance" xsi:noNamespaceSchemaLocation="http://sumo.dlr.de/xsd/routes_file.xsd">
    <trip id="0" depart="0.00" from="721126897#14" to="-1117528627#2" type="td_0" departLane="best" departSpeed="max" departPos="random"/>
    <trip id="1" depart="0.36" from="-934254484#0" to="-723990056" type="td_0" departLane="best" departSpeed="max" departPos="random"/>
    <trip id="2" depart="0.72" from="721131937#6" to="721131934#5" type="td_0" departLane="best" departSpeed="max" departPos="random"/>
    <trip id="3" depart="1.08" from="722464592" to="-155315678#5" type="td_0" departLane="best" departSpeed="max" departPos="random"/>
    <trip id="4" depart="1.44" from="1270367191#0" to="-1149576119" type="td_0" departLane="best" departSpeed="max" departPos="random"/>
    <trip id="5" depart="1.80" from="-723990056" to="155315694#0" type="td_0" departLane="best" departSpeed="max" departPos="random"/>
    <trip id="6" depart="2.16" from="-1135316109" to="-721131953" type="td_0" departLane="best" departSpeed="max" departPos="random"/>
    <trip id="7" depart="2.52" from="721126897#4" to="271412010" type="td_0" departLane="best" departSpeed="max" departPos="random"/>
    <trip id="8" depart="2.88" from="-723990057#2" to="442885355#1" type="td_0" departLane="best" departSpeed="max" departPos="random"/>
    <trip id="9" depart="3.24" from="721131946#9" to="-100954129#4" type="td_0" departLane="best" departSpeed="max" departPos="random"/>
    <trip id="10" depart="3.60" from="721131946#8" to="721131937#10" type="td_0" departLane="best" departSpeed="max" departPos="random"/>
    <trip id="11" depart="3.96" from="1149578945" to="-322191552" type="td_0" departLane="best" departSpeed="max" departPos="random"/>
    <trip id="12" depart="4.32" from="778021896" to="1149578945" type="td_0" departLane="best" departSpeed="max" departPos="random"/>
    <trip id="13" depart="4.68" from="-155315694#2" to="-155315693#2" type="td_0" departLane="best" departSpeed="max" departPos="random"/>
    <trip id="14" depart="5.04" from="721131960#5" to="591704635#0" type="td_0" departLane="best" departSpeed="max" departPos="random"/>
    <trip id="15" depart="5.40" from="721131946#9" to="721131937#8" type="td_0" departLane="best" departSpeed="max" departPos="random"/>
    <trip id="16" depart="5.76" from="155775198#4" to="850817949" type="td_0" departLane="best" departSpeed="max" departPos="random"/>
    <trip id="17" depart="6.12" from="1149579537#2" to="31905190#0" type="td_0" departLane="best" departSpeed="max" departPos="random"/>
    <trip id="18" depart="6.48" from="721131958#1" to="708790255#0" type="td_0" departLane="best" departSpeed="max" departPos="random"/>
    <trip id="19" depart="6.84" from="721131963#1" to="442885101#0" type="td_0" departLane="best" departSpeed="max" departPos="random"/>
    <trip id="20" depart="7.20" from="721131937#1" to="-1149580109" type="td_0" departLane="best" departSpeed="max" departPos="random"/>
    <trip id="21" depart="7.56" from="-723990057#6" to="100954129#5" type="td_0" departLane="best" departSpeed="max" departPos="random"/>
    <trip id="22" depart="7.92" from="-155315680#1" to="-723990057#6" type="td_0" departLane="best" departSpeed="max" departPos="random"/>
    <trip id="23" depart="8.28" from="-155315695#3" to="-934254484#1" type="td_0" departLane="best" departSpeed="max" departPos="random"/>
    <trip id="24" depart="8.64" from="721126897#14" to="1149579536#7" type="td_0" departLane="best" departSpeed="max" departPos="random"/>
    <trip id="25" depart="9.00" from="1149579537#0" to="-722464597#1" type="td_0" departLane="best" departSpeed="max" departPos="random"/>
    <trip id="26" depart="9.36" from="-851342124" to="724005155#1" type="td_0" departLane="best" departSpeed="max" departPos="random"/>
    <trip id="27" depart="9.72" from="721126897#4" to="591704635#3" type="td_0" departLane="best" departSpeed="max" departPos="random"/>
    <trip id="28" depart="10.08" from="-442885359#0" to="721131937#6" type="td_0" departLane="best" departSpeed="max" departPos="random"/>
    <trip id="29" depart="10.44" from="-442885101#2" to="1149579537#4" type="td_0" departLane="best" departSpeed="max" departPos="random"/>
    <trip id="30" depart="10.80" from="857958820#1" to="721126897#15" type="td_0" departLane="best" departSpeed="max" departPos="random"/>
    <trip id="31" depart="11.16" from="31905190#0" to="721131934#7" type="td_0" departLane="best" departSpeed="max" departPos="random"/>
    <trip id="32" depart="11.52" from="721131960#4" to="721131946#3" type="td_0" departLane="best" departSpeed="max" departPos="random"/>
    <trip id="33" depart="11.88" from="-723990057#6" to="-1149578009" type="td_0" departLane="best" departSpeed="max" departPos="random"/>
    <trip id="34" depart="12.24" from="1119166765#1" to="-851342124" type="td_0" departLane="best" departSpeed="max" departPos="random"/>
    <trip id="35" depart="12.60" from="-722466950" to="724005155#5" type="td_0" departLane="best" departSpeed="max" departPos="random"/>
    <trip id="36" depart="12.96" from="721126897#5" to="1149580107#2" type="td_0" departLane="best" departSpeed="max" departPos="random"/>
    <trip id="37" depart="13.32" from="722466950" to="152227691#4" type="td_0" departLane="best" departSpeed="max" departPos="random"/>
    <trip id="38" depart="13.68" from="-850817949" to="-724005155#9" type="td_0" departLane="best" departSpeed="max" departPos="random"/>
    <trip id="39" depart="14.04" from="31905195#1" to="-850817945" type="td_0" departLane="best" departSpeed="max" departPos="random"/>
    <trip id="40" depart="14.40" from="442885101#0" to="722464597#0" type="td_0" departLane="best" departSpeed="max" departPos="random"/>
    <trip id="41" depart="14.76" from="1149580107#2" to="-723990054" type="td_0" departLane="best" departSpeed="max" departPos="random"/>
    <trip id="42" depart="15.12" from="934254484#1" to="155315695#0" type="td_0" departLane="best" departSpeed="max" departPos="random"/>
    <trip id="43" depart="15.48" from="-155315693#8" to="-1149580110" type="td_0" departLane="best" departSpeed="max" departPos="random"/>
    <trip id="44" depart="15.84" from="-155315719#1" to="721126897#13" type="td_0" departLane="best" departSpeed="max" departPos="random"/>
    <trip id="45" depart="16.20" from="721131946#5" to="1307054560#2" type="td_0" departLane="best" departSpeed="max" departPos="random"/>
    <trip id="46" depart="16.56" from="-1307054560#4" to="1149579537#6" type="td_0" departLane="best" departSpeed="max" departPos="random"/>
    <trip id="47" depart="16.92" from="934254484#0" to="155775198#1" type="td_0" departLane="best" departSpeed="max" departPos="random"/>
    <trip id="48" depart="17.28" from="850817946" to="721131963#3" type="td_0" departLane="best" departSpeed="max" departPos="random"/>
    <trip id="49" depart="17.64" from="-100954163#9" to="721131937#5" type="td_0" departLane="best" departSpeed="max" departPos="random"/>
    <trip id="50" depart="18.00" from="721131934#4" to="163652291" type="td_0" departLane="best" departSpeed="max" departPos="random"/>
    <trip id="51" depart="18.36" from="-851342124" to="721126897#15" type="td_0" departLane="best" departSpeed="max" departPos="random"/>
    <trip id="52" depart="18.72" from="-155315719#15" to="152227686#3" type="td_0" departLane="best" departSpeed="max" departPos="random"/>
    <trip id="53" depart="19.08" from="152227691#12" to="778021895" type="td_0" departLane="best" departSpeed="max" departPos="random"/>
    <trip id="54" depart="19.44" from="155315680#0" to="-482169086#8" type="td_0" departLane="best" departSpeed="max" departPos="random"/>
    <trip id="55" depart="19.80" from="722466948" to="721131966#1" type="td_0" departLane="best" departSpeed="max" departPos="random"/>
    <trip id="56" depart="20.16" from="1056899464#1" to="721126897#15" type="td_0" departLane="best" departSpeed="max" departPos="random"/>
    <trip id="57" depart="20.52" from="591704635#0" to="-31905214" type="td_0" departLane="best" departSpeed="max" departPos="random"/>
    <trip id="58" depart="20.88" from="721131943" to="205021436#0" type="td_0" departLane="best" departSpeed="max" departPos="random"/>
    <trip id="59" depart="21.24" from="721131946#2" to="155775198#4" type="td_0" departLane="best" departSpeed="max" departPos="random"/>
    <trip id="60" depart="21.60" from="-100954129#0" to="1119166765#6" type="td_0" departLane="best" departSpeed="max" departPos="random"/>
    <trip id="61" depart="21.96" from="-1117528626#1" to="723990057#7" type="td_0" departLane="best" departSpeed="max" departPos="random"/>
    <trip id="62" depart="22.32" from="721131967" to="721131960#4" type="td_0" departLane="best" departSpeed="max" departPos="random"/>
    <trip id="63" depart="22.68" from="1119166764#0" to="-1270367191#1" type="td_0" departLane="best" departSpeed="max" departPos="random"/>
    <trip id="64" depart="23.04" from="-155315688#0" to="155315669#0" type="td_0" departLane="best" departSpeed="max" departPos="random"/>
    <trip id="65" depart="23.40" from="-152227686#1" to="721131946#14" type="td_0" departLane="best" departSpeed="max" departPos="random"/>
    <trip id="66" depart="23.76" from="721131946#11" to="-155775198#6" type="td_0" departLane="best" departSpeed="max" departPos="random"/>
    <trip id="67" depart="24.12" from="152227691#6" to="31905181#4" type="td_0" departLane="best" departSpeed="max" departPos="random"/>
    <trip id="68" depart="24.48" from="-850817949" to="721131966#1" type="td_0" departLane="best" departSpeed="max" departPos="random"/>
    <trip id="69" depart="24.84" from="1270367191#2" to="-722464597#2" type="td_0" departLane="best" departSpeed="max" departPos="random"/>
    <trip id="70" depart="25.20" from="155775198#6" to="721131937#8" type="td_0" departLane="best" departSpeed="max" departPos="random"/>
    <trip id="71" depart="25.56" from="-721131967" to="1119166765#12" type="td_0" departLane="best" departSpeed="max" departPos="random"/>
    <trip id="72" depart="25.92" from="934254484#0" to="721126897#7" type="td_0" departLane="best" departSpeed="max" departPos="random"/>
    <trip id="73" depart="26.28" from="152227686#1" to="155315711" type="td_0" departLane="best" departSpeed="max" departPos="random"/>
    <trip id="74" depart="26.64" from="-155775198#4" to="-723990057#2" type="td_0" departLane="best" departSpeed="max" departPos="random"/>
    <trip id="75" depart="27.00" from="1149578944" to="442885355#1" type="td_0" departLane="best" departSpeed="max" departPos="random"/>
    <trip id="76" depart="27.36" from="-723990057#7" to="-723990054" type="td_0" departLane="best" departSpeed="max" departPos="random"/>
    <trip id="77" depart="27.72" from="-152227686#2" to="721126897#14" type="td_0" departLane="best" departSpeed="max" departPos="random"/>
    <trip id="78" depart="28.08" from="-723990057#6" to="722466947" type="td_0" departLane="best" departSpeed="max" departPos="random"/>
    <trip id="79" depart="28.44" from="721131963#0" to="-1307054560#5" type="td_0" departLane="best" departSpeed="max" departPos="random"/>
    <trip id="80" depart="28.80" from="-724005155#4" to="721131934#3" type="td_0" departLane="best" departSpeed="max" departPos="random"/>
    <trip id="81" depart="29.16" from="-722466951" to="-163652291" type="td_0" departLane="best" departSpeed="max" departPos="random"/>
    <trip id="82" depart="29.52" from="723990058" to="350424623#5" type="td_0" departLane="best" departSpeed="max" departPos="random"/>
    <trip id="83" depart="29.88" from="152227691#5" to="721131946#5" type="td_0" departLane="best" departSpeed="max" departPos="random"/>
    <trip id="84" depart="30.24" from="721131946#9" to="-721131940" type="td_0" departLane="best" departSpeed="max" departPos="random"/>
    <trip id="85" depart="30.60" from="-155315695#0" to="152227686#1" type="td_0" departLane="best" departSpeed="max" departPos="random"/>
    <trip id="86" depart="30.96" from="1270367191#2" to="152227691#6" type="td_0" departLane="best" departSpeed="max" departPos="random"/>
    <trip id="87" depart="31.32" from="721131937#5" to="721131934#5" type="td_0" departLane="best" departSpeed="max" departPos="random"/>
    <trip id="88" depart="31.68" from="857958820#0" to="-155315693#2" type="td_0" departLane="best" departSpeed="max" departPos="random"/>
    <trip id="89" depart="32.04" from="1149580107#3" to="1149579534" type="td_0" departLane="best" departSpeed="max" departPos="random"/>
    <trip id="90" depart="32.40" from="721131963#1" to="-766326315" type="td_0" departLane="best" departSpeed="max" departPos="random"/>
    <trip id="91" depart="32.76" from="-721131942" to="152227691#12" type="td_0" departLane="best" departSpeed="max" departPos="random"/>
    <trip id="92" depart="33.12" from="1270367191#0" to="-934270764" type="td_0" departLane="best" departSpeed="max" departPos="random"/>
    <trip id="93" depart="33.48" from="-766326334.90" to="723990057#4" type="td_0" departLane="best" departSpeed="max" departPos="random"/>
    <trip id="94" depart="33.84" from="152227691#0" to="721131963#3" type="td_0" departLane="best" departSpeed="max" departPos="random"/>
    <trip id="95" depart="34.20" from="31905181#0" to="-1149581388" type="td_0" departLane="best" departSpeed="max" departPos="random"/>
    <trip id="96" depart="34.56" from="934254484#2" to="721131960#5" type="td_0" departLane="best" departSpeed="max" departPos="random"/>
    <trip id="97" depart="34.92" from="850699983#1" to="723990057#5" type="td_0" departLane="best" departSpeed="max" departPos="random"/>
    <trip id="98" depart="35.28" from="721131960#5" to="-442885101#1" type="td_0" departLane="best" departSpeed="max" departPos="random"/>
    <trip id="99" depart="35.64" from="152227691#9" to="-722464598" type="td_0" departLane="best" departSpeed="max" departPos="random"/>
    <trip id="100" depart="36.00" from="1149580107#3" to="-1270367191#2" type="td_0" departLane="best" departSpeed="max" departPos="random"/>
    <trip id="101" depart="36.36" from="1149579537#2" to="857958820#0" type="td_0" departLane="best" departSpeed="max" departPos="random"/>
    <trip id="102" depart="36.72" from="-850817949" to="721131946#5" type="td_0" departLane="best" departSpeed="max" departPos="random"/>
    <trip id="103" depart="37.08" from="152227691#12" to="1307054560#2" type="td_0" departLane="best" departSpeed="max" departPos="random"/>
    <trip id="104" depart="37.44" from="778021896" to="934254484#0" type="td_0" departLane="best" departSpeed="max" departPos="random"/>
    <trip id="105" depart="37.80" from="31905181#4" to="721131937#5" type="td_0" departLane="best" departSpeed="max" departPos="random"/>
    <trip id="106" depart="38.16" from="-442885101#0" to="1056899464#1" type="td_0" departLane="best" departSpeed="max" departPos="random"/>
    <trip id="107" depart="38.52" from="850699983#1" to="442885101#0" type="td_0" departLane="best" departSpeed="max" departPos="random"/>
    <trip id="108" depart="38.88" from="163652291" to="721131941" type="td_0" departLane="best" departSpeed="max" departPos="random"/>
    <trip id="109" depart="39.24" from="-1307054560#1" to="442885101#2" type="td_0" departLane="best" departSpeed="max" departPos="random"/>
    <trip id="110" depart="39.60" from="155315682" to="721131963#1" type="td_0" departLane="best" departSpeed="max" departPos="random"/>
    <trip id="111" depart="39.96" from="-442885101#1" to="827332719" type="td_0" departLane="best" departSpeed="max" departPos="random"/>
    <trip id="112" depart="40.32" from="-155315680#1" to="-721131938" type="td_0" departLane="best" departSpeed="max" departPos="random"/>
    <trip id="113" depart="40.68" from="442885355#1" to="721131934#5" type="td_0" departLane="best" departSpeed="max" departPos="random"/>
    <trip id="114" depart="41.04" from="-724005155#0" to="-155315719#8" type="td_0" departLane="best" departSpeed="max" departPos="random"/>
    <trip id="115" depart="41.40" from="722464592" to="-724005155#9" type="td_0" departLane="best" departSpeed="max" departPos="random"/>
    <trip id="116" depart="41.76" from="442885101#2" to="721126897#12" type="td_0" departLane="best" departSpeed="max" departPos="random"/>
    <trip id="117" depart="42.12" from="1149582046#0" to="442885101#1" type="td_0" departLane="best" departSpeed="max" departPos="random"/>
    <trip id="118" depart="42.48" from="155315695#4" to="724005148" type="td_0" departLane="best" departSpeed="max" departPos="random"/>
    <trip id="119" depart="42.84" from="-722464595" to="721131937#2" type="td_0" departLane="best" departSpeed="max" departPos="random"/>
    <trip id="120" depart="43.20" from="-724005155#4" to="1149580107#2" type="td_0" departLane="best" departSpeed="max" departPos="random"/>
    <trip id="121" depart="43.56" from="721131934#0" to="1117528626#0" type="td_0" departLane="best" departSpeed="max" departPos="random"/>
    <trip id="122" depart="43.92" from="1119166765#1" to="721131943" type="td_0" departLane="best" departSpeed="max" departPos="random"/>
    <trip id="123" depart="44.28" from="-152227686#6" to="152227691#2" type="td_0" departLane="best" departSpeed="max" departPos="random"/>
    <trip id="124" depart="44.64" from="934254484#2" to="934254484#0" type="td_0" departLane="best" departSpeed="max" departPos="random"/>
    <trip id="125" depart="45.00" from="-152227686#6" to="-722464598" type="td_0" departLane="best" departSpeed="max" departPos="random"/>
    <trip id="126" depart="45.36" from="-850817949" to="723990059" type="td_0" departLane="best" departSpeed="max" departPos="random"/>
    <trip id="127" depart="45.72" from="1149579537#0" to="-406038877" type="td_0" departLane="best" departSpeed="max" departPos="random"/>
    <trip id="128" depart="46.08" from="721131958#1" to="721131937#12" type="td_0" departLane="best" departSpeed="max" departPos="random"/>
    <trip id="129" depart="46.44" from="591704635#3" to="857958820#0" type="td_0" departLane="best" departSpeed="max" departPos="random"/>
    <trip id="130" depart="46.80" from="721126897#5" to="-100954129#5" type="td_0" departLane="best" departSpeed="max" departPos="random"/>
    <trip id="131" depart="47.16" from="721131954#0" to="1056899464#2" type="td_0" departLane="best" departSpeed="max" departPos="random"/>
    <trip id="132" depart="47.52" from="721126897#7" to="724005155#10" type="td_0" departLane="best" departSpeed="max" departPos="random"/>
    <trip id="133" depart="47.88" from="-271412010" to="-155315719#1" type="td_0" departLane="best" departSpeed="max" departPos="random"/>
    <trip id="134" depart="48.24" from="-155315719#0" to="31905190#1" type="td_0" departLane="best" departSpeed="max" departPos="random"/>
    <trip id="135" depart="48.60" from="-852629939" to="591704635#0" type="td_0" departLane="best" departSpeed="max" departPos="random"/>
    <trip id="136" depart="48.96" from="721131937#13" to="-721131962" type="td_0" departLane="best" departSpeed="max" departPos="random"/>
    <trip id="137" depart="49.32" from="721126897#13" to="-850817946" type="td_0" departLane="best" departSpeed="max" departPos="random"/>
    <trip id="138" depart="49.68" from="152227697#1" to="722466947" type="td_0" departLane="best" departSpeed="max" departPos="random"/>
    <trip id="139" depart="50.04" from="721131960#5" to="-155315683" type="td_0" departLane="best" departSpeed="max" departPos="random"/>
    <trip id="140" depart="50.40" from="1270367191#2" to="-934254484#1" type="td_0" departLane="best" departSpeed="max" departPos="random"/>
    <trip id="141" depart="50.76" from="-100954129#1" to="721131946#2" type="td_0" departLane="best" departSpeed="max" departPos="random"/>
    <trip id="142" depart="51.12" from="721126897#14" to="-850817945" type="td_0" departLane="best" departSpeed="max" departPos="random"/>
    <trip id="143" depart="51.48" from="721131937#8" to="31905190#0" type="td_0" departLane="best" departSpeed="max" departPos="random"/>
    <trip id="144" depart="51.84" from="1307054560#1" to="-100954129#5" type="td_0" departLane="best" departSpeed="max" departPos="random"/>
    <trip id="145" depart="52.20" from="-152227697#3" to="722464591#3" type="td_0" departLane="best" departSpeed="max" departPos="random"/>
    <trip id="146" depart="52.56" from="722464597#2" to="31905181#0" type="td_0" departLane="best" departSpeed="max" departPos="random"/>
    <trip id="147" depart="52.92" from="721131960#1" to="442885101#1" type="td_0" departLane="best" departSpeed="max" departPos="random"/>
    <trip id="148" depart="53.28" from="-31905201#2" to="-155775198#5" type="td_0" departLane="best" departSpeed="max" departPos="random"/>
    <trip id="149" depart="53.64" from="1119166764#0" to="722464597#0" type="td_0" departLane="best" departSpeed="max" departPos="random"/>
    <trip id="150" depart="54.00" from="721131946#6" to="721131963#3" type="td_0" departLane="best" departSpeed="max" departPos="random"/>
    <trip id="151" depart="54.36" from="722464593#1" to="-722464597#1" type="td_0" departLane="best" departSpeed="max" departPos="random"/>
    <trip id="152" depart="54.72" from="-766326334.90" to="-155315695#0" type="td_0" departLane="best" departSpeed="max" departPos="random"/>
    <trip id="153" depart="55.08" from="721131946#2" to="722464592" type="td_0" departLane="best" departSpeed="max" departPos="random"/>
    <trip id="154" depart="55.44" from="1149580107#4" to="721126897#12" type="td_0" departLane="best" departSpeed="max" departPos="random"/>
    <trip id="155" depart="55.80" from="-442885101#0" to="723990057#7" type="td_0" departLane="best" departSpeed="max" departPos="random"/>
    <trip id="156" depart="56.16" from="721131963#1" to="851342124" type="td_0" departLane="best" departSpeed="max" departPos="random"/>
    <trip id="157" depart="56.52" from="721131946#9" to="722464591#3" type="td_0" departLane="best" departSpeed="max" departPos="random"/>
    <trip id="158" depart="56.88" from="-1135316108" to="721131937#9" type="td_0" departLane="best" departSpeed="max" departPos="random"/>
    <trip id="159" depart="57.24" from="1149576119" to="723990058" type="td_0" departLane="best" departSpeed="max" departPos="random"/>
    <trip id="160" depart="57.60" from="721131946#8" to="721131966#0" type="td_0" departLane="best" departSpeed="max" departPos="random"/>
    <trip id="161" depart="57.96" from="721131946#9" to="-850817949" type="td_0" departLane="best" departSpeed="max" departPos="random"/>
    <trip id="162" depart="58.32" from="721131946#3" to="-155315695#3" type="td_0" departLane="best" departSpeed="max" departPos="random"/>
    <trip id="163" depart="58.68" from="721131963#3" to="721131963#3" type="td_0" departLane="best" departSpeed="max" departPos="random"/>
    <trip id="164" depart="59.04" from="-723990057#3" to="721131956" type="td_0" departLane="best" departSpeed="max" departPos="random"/>
    <trip id="165" depart="59.40" from="152227691#13" to="1119166765#1" type="td_0" departLane="best" departSpeed="max" departPos="random"/>
    <trip id="166" depart="59.76" from="721131946#5" to="-723990057#3" type="td_0" departLane="best" departSpeed="max" departPos="random"/>
    <trip id="167" depart="60.12" from="-1135316108" to="-721131941" type="td_0" departLane="best" departSpeed="max" departPos="random"/>
    <trip id="168" depart="60.48" from="1119166765#6" to="721131966#0" type="td_0" departLane="best" departSpeed="max" departPos="random"/>
    <trip id="169" depart="60.84" from="850475200" to="-934270764" type="td_0" departLane="best" departSpeed="max" departPos="random"/>
    <trip id="170" depart="61.20" from="721126897#15" to="1149580107#3" type="td_0" departLane="best" departSpeed="max" departPos="random"/>
    <trip id="171" depart="61.56" from="852629939" to="163652291" type="td_0" departLane="best" departSpeed="max" departPos="random"/>
    <trip id="172" depart="61.92" from="724005155#1" to="-155315719#1" type="td_0" departLane="best" departSpeed="max" departPos="random"/>
    <trip id="173" depart="62.28" from="850817945" to="-482169086#8" type="td_0" departLane="best" departSpeed="max" departPos="random"/>
    <trip id="174" depart="62.64" from="850475200" to="-850817949" type="td_0" departLane="best" departSpeed="max" departPos="random"/>
    <trip id="175" depart="63.00" from="-155315719#1" to="152227686#3" type="td_0" departLane="best" departSpeed="max" departPos="random"/>
    <trip id="176" depart="63.36" from="721131937#5" to="1119166765#12" type="td_0" departLane="best" departSpeed="max" departPos="random"/>
    <trip id="177" depart="63.72" from="591704635#0" to="155315695#1" type="td_0" departLane="best" departSpeed="max" departPos="random"/>
    <trip id="178" depart="64.08" from="1149579537#6" to="442885101#0" type="td_0" departLane="best" departSpeed="max" departPos="random"/>
    <trip id="179" depart="64.44" from="-827332719" to="721131937#13" type="td_0" departLane="best" departSpeed="max" departPos="random"/>
    <trip id="180" depart="64.80" from="-100954129#0" to="723990057#5" type="td_0" departLane="best" departSpeed="max" departPos="random"/>
    <trip id="181" depart="65.16" from="155775198#5" to="721131937#5" type="td_0" departLane="best" departSpeed="max" departPos="random"/>
    <trip id="182" depart="65.52" from="721131937#8" to="721131934#4" type="td_0" departLane="best" departSpeed="max" departPos="random"/>
    <trip id="183" depart="65.88" from="1149579536#5" to="-1307054560#5" type="td_0" departLane="best" departSpeed="max" departPos="random"/>
    <trip id="184" depart="66.24" from="721131932" to="1149576119" type="td_0" departLane="best" departSpeed="max" departPos="random"/>
    <trip id="185" depart="66.60" from="1119166765#1" to="721131963#0" type="td_0" departLane="best" departSpeed="max" departPos="random"/>
    <trip id="186" depart="66.96" from="721131937#13" to="1117528626#0" type="td_0" departLane="best" departSpeed="max" departPos="random"/>
    <trip id="187" depart="67.32" from="1119166764#0" to="1149580110" type="td_0" departLane="best" departSpeed="max" departPos="random"/>
    <trip id="188" depart="67.68" from="1149580107#3" to="1056899464#0" type="td_0" departLane="best" departSpeed="max" departPos="random"/>
    <trip id="189" depart="68.04" from="-155775200#1" to="1307054560#1" type="td_0" departLane="best" departSpeed="max" departPos="random"/>
    <trip id="190" depart="68.40" from="724005155#10" to="721131934#6" type="td_0" departLane="best" departSpeed="max" departPos="random"/>
    <trip id="191" depart="68.76" from="722464597#0" to="708790255#0" type="td_0" departLane="best" departSpeed="max" departPos="random"/>
    <trip id="192" depart="69.12" from="1056899464#2" to="31905181#1" type="td_0" departLane="best" departSpeed="max" departPos="random"/>
    <trip id="193" depart="69.48" from="-100954129#0" to="100954129#4" type="td_0" departLane="best" departSpeed="max" departPos="random"/>
    <trip id="194" depart="69.84" from="1307054560#2" to="442885101#0" type="td_0" departLane="best" departSpeed="max" departPos="random"/>
    <trip id="195" depart="70.20" from="721126897#5" to="152227691#5" type="td_0" departLane="best" departSpeed="max" departPos="random"/>
    <trip id="196" depart="70.56" from="152227691#0" to="-722464598" type="td_0" departLane="best" departSpeed="max" departPos="random"/>
    <trip id="197" depart="70.92" from="152227691#6" to="722464597#2" type="td_0" departLane="best" departSpeed="max" departPos="random"/>
    <trip id="198" depart="71.28" from="721131946#6" to="-442885101#2" type="td_0" departLane="best" departSpeed="max" departPos="random"/>
    <trip id="199" depart="71.64" from="-155315683" to="155315695#4" type="td_0" departLane="best" departSpeed="max" departPos="random"/>
    <trip id="200" depart="72.00" from="721126897#13" to="1149578944" type="td_0" departLane="best" departSpeed="max" departPos="random"/>
    <trip id="201" depart="72.36" from="721131954#0" to="721131943" type="td_0" departLane="best" departSpeed="max" departPos="random"/>
    <trip id="202" depart="72.72" from="721131934#1" to="-723990057#2" type="td_0" departLane="best" departSpeed="max" departPos="random"/>
    <trip id="203" depart="73.08" from="-721131962" to="-1117528627#2" type="td_0" departLane="best" departSpeed="max" departPos="random"/>
    <trip id="204" depart="73.44" from="-724005155#9" to="152227691#8" type="td_0" departLane="best" departSpeed="max" departPos="random"/>
    <trip id="205" depart="73.80" from="721131960#5" to="-152227686#0" type="td_0" departLane="best" departSpeed="max" departPos="random"/>
    <trip id="206" depart="74.16" from="1149580308" to="721126897#13" type="td_0" departLane="best" departSpeed="max" departPos="random"/>
    <trip id="207" depart="74.52" from="-721131953" to="721131937#10" type="td_0" departLane="best" departSpeed="max" departPos="random"/>
    <trip id="208" depart="74.88" from="155315669#0" to="-724005155#8" type="td_0" departLane="best" departSpeed="max" departPos="random"/>
    <trip id="209" depart="75.24" from="721126897#5" to="-100954129#3" type="td_0" departLane="best" departSpeed="max" departPos="random"/>
    <trip id="210" depart="75.60" from="721131937#9" to="721131946#2" type="td_0" departLane="best" departSpeed="max" departPos="random"/>
    <trip id="211" depart="75.96" from="-155315719#0" to="1307054560#3" type="td_0" departLane="best" departSpeed="max" departPos="random"/>