<?xml version="1.0" encoding="UTF-8"?>

<!-- generated on 2025-08-22 17:51:46.358947 by randomTrips.py v1_24_0+0000-b72eb3fabc8
<configuration>
    <net-file value="phuquoc.net.xml"/>
    <output-trip-file value="phuquoc-demo.rou.xml"/>
    <trip-attributes value="type=&quot;td_0&quot; departLane=&quot;best&quot; departSpeed=&quot;max&quot; departPos=&quot;random&quot;"/>
    <lanes value="True"/>
    <insertion-rate value="10000.0"/>
</configuration>
-->

<!-- generated on 2025-08-22 17:51:45 by Eclipse SUMO duarouter Version 1.24.0
<duarouterConfiguration xmlns:xsi="http://www.w3.org/2001/XMLSchema-instance" xsi:noNamespaceSchemaLocation="http://sumo.dlr.de/xsd/duarouterConfiguration.xsd">

    <input>
        <net-file value="phuquoc.net.xml"/>
        <route-files value="phuquoc-demo.rou.xml"/>
    </input>

    <output>
        <output-file value="routes.rou.xml"/>
        <alternatives-output value="NUL"/>
    </output>

    <time>
        <begin value="0"/>
        <end value="3600"/>
    </time>

    <report>
        <no-warnings value="true"/>
        <ignore-errors value="true"/>
        <no-step-log value="true"/>
    </report>

</duarouterConfiguration>
-->

<routes xmlns:xsi="http://www.w3.org/2001/XMLSchema-instance" xsi:noNamespaceSchemaLocation="http://sumo.dlr.de/xsd/routes_file.xsd">
    <vehicle id="0" type="td_0" depart="0.00" departLane="best" departPos="random" departSpeed="max">
        <route edges="721126897#14 721126897#15 1149579536#0 1149579536#1 1149579536#2 1149579536#4 1149579536#5 1149579536#7 721131934#0 721131934#1 721131934#3 721131934#4 721131934#5 721131934#6 721131934#7 1149580107#0 1149580107#1 1149580107#2 1149580107#3 1149580107#4 155315669#0 -723990057#7 -723990057#6 -1117528626#1 -1117528627#2"/>
    </vehicle>
    <vehicle id="1" type="td_0" depart="0.36" departLane="best" departPos="random" departSpeed="max">
        <route edges="-934254484#0 -1135316109 155315719#3 -100954245#13 163652291 723990054 -723990056"/>
    </vehicle>
    <vehicle id="2" type="td_0" depart="0.72" departLane="best" departPos="random" departSpeed="max">
        <route edges="721131937#6 -852629939 721131946#8 721131946#9 721131946#11 721131946#14 721131946#15 1149579536#0 1149579536#1 1149579536#2 1149579536#4 1149579536#5 1149579536#7 721131934#0 721131934#1 721131934#3 721131934#4 721131934#5"/>
    </vehicle>
    <vehicle id="3" type="td_0" depart="1.08" departLane="best" departPos="random" departSpeed="max">
        <route edges="722464592 722464593#1 -205021436#1 -205021436#0 -1307054560#5 -1307054560#4 -1307054560#3 -1307054560#2 -1307054560#1 -1307054560#0 1117528626#0 -155315678#5"/>
    </vehicle>
    <vehicle id="4" type="td_0" depart="1.44" departLane="best" departPos="random" departSpeed="max">
        <route edges="1270367191#0 1270367191#2 -322191552 442885355#1 442885355#2 -442885101#2 -442885101#1 -442885101#0 -482169086#8 152227691#0 152227691#1 152227691#2 152227691#4 152227691#6 152227691#5 152227691#7 152227691#8 152227691#9 152227691#10 152227691#12 152227691#13 1149579537#0 1149579537#1 1149579537#2 1149579537#4 1149579537#6 721131937#0 721131937#1 721131937#2 721131937#5 721131937#6 721131937#8 721131937#9 1149576119 -1149576119"/>
    </vehicle>
    <vehicle id="5" type="td_0" depart="1.80" departLane="best" departPos="random" departSpeed="max">
        <route edges="-723990056 163652291 31905201#0 723990058 723990057#1 723990057#3 723990057#4 723990057#5 723990057#6 723990057#7 155775198#0 155775198#1 155775198#4 155775198#5 155315694#0"/>
    </vehicle>
    <vehicle id="6" type="td_0" depart="2.16" departLane="best" departPos="random" departSpeed="max">
        <route edges="-1135316109 1135316109 934254484#0 934254484#1 934254484#2 723990057#1 723990057#3 723990057#4 723990057#5 723990057#6 723990057#7 -155775200#1 152227691#0 152227691#1 152227691#2 152227691#4 152227691#6 152227691#5 152227691#7 152227691#8 152227691#9 152227691#10 152227691#12 152227691#13 1149579537#0 1149579537#1 1149579537#2 1149579537#4 1149579537#6 721131937#0 721131937#1 721131937#2 721131937#5 721131937#6 721131937#8 721131937#9 721131937#10 721131937#12 721131937#13 -721131953"/>
    </vehicle>
    <vehicle id="7" type="td_0" depart="2.52" departLane="best" departPos="random" departSpeed="max">
        <route edges="721126897#4 721126897#5 721126897#7 721126897#12 721126897#13 721126897#14 721126897#15 1149579536#0 1149579536#1 1149579536#2 1149579536#4 1149579536#5 1149579536#7 721131934#0 721131934#1 721131934#3 721131934#4 721131934#5 721131934#6 721131934#7 1149580107#0 1149580107#1 1149580107#2 1149580107#3 1149580107#4 155315669#0 155775198#0 100954129#0 271412010"/>
    </vehicle>
    <vehicle id="8" type="td_0" depart="2.88" departLane="best" departPos="random" departSpeed="max">
        <route edges="-723990057#2 723990057#1 723990057#3 723990057#4 723990057#5 723990057#6 723990057#7 155775198#0 155775198#1 155775198#4 155775198#5 155775198#6 1270367192#2 1270367192#0 1270367191#0 1270367191#2 -322191552 442885355#1"/>
    </vehicle>
    <vehicle id="9" type="td_0" depart="3.24" departLane="best" departPos="random" departSpeed="max">
        <route edges="721131946#9 721131946#11 721131946#14 721131946#15 1149579536#0 1149579536#1 1149579536#2 1149579536#4 1149579536#5 1149579536#7 721131934#0 721131934#1 721131934#3 721131934#4 721131934#5 721131934#6 721131934#7 1149580107#0 1149580107#1 1149580107#2 1149580107#3 1149580107#4 155315669#0 -723990057#7 -723990057#6 -723990057#5 -723990057#4 -766326319 -100954129#4"/>
    </vehicle>
    <vehicle id="10" type="td_0" depart="3.60" departLane="best" departPos="random" departSpeed="max">
        <route edges="721131946#8 721131940 721131937#6 721131937#8 721131937#9 721131937#10"/>
    </vehicle>
    <vehicle id="11" type="td_0" depart="3.96" departLane="best" departPos="random" departSpeed="max">
        <route edges="1149578945 -1149578945 1149579536#5 1149579536#7 721131934#0 721131934#1 721131934#3 721131934#4 721131934#5 721131934#6 721131934#7 1149580107#0 1149580107#1 1149580107#2 1149580107#3 1149580107#4 155315669#0 155775198#0 155775198#1 155775198#4 155775198#5 155775198#6 1270367192#2 1270367192#0 1270367191#0 1270367191#2 -322191552"/>
    </vehicle>
    <vehicle id="12" type="td_0" depart="4.32" departLane="best" departPos="random" departSpeed="max">
        <route edges="778021896 -722464597#2 -722464597#1 -155315711 442885355#2 -442885101#2 -442885101#1 -442885101#0 -482169086#8 152227691#0 152227691#1 152227691#2 152227691#4 152227691#6 152227691#5 152227691#7 152227691#8 152227691#9 152227691#10 152227691#12 152227691#13 1149579537#0 1149579537#1 -1149578945 1149578945"/>
    </vehicle>
    <vehicle id="13" type="td_0" depart="4.68" departLane="best" departPos="random" departSpeed="max">
        <route edges="-155315694#2 155315694#0 155315694#3 155315695#4 -155315693#2"/>
    </vehicle>
    <vehicle id="14" type="td_0" depart="5.04" departLane="best" departPos="random" departSpeed="max">
        <route edges="721131960#5 857958820#0 857958820#1 722464592 722464593#1 -205021436#1 205021436#1 591704635#0"/>
    </vehicle>
    <vehicle id="15" type="td_0" depart="5.40" departLane="best" departPos="random" departSpeed="max">
        <route edges="721131946#9 721131939 721131937#5 721131937#6 721131937#8"/>
    </vehicle>
    <vehicle id="16" type="td_0" depart="5.76" departLane="best" departPos="random" departSpeed="max">
        <route edges="155775198#4 -155775198#4 -155775198#3 -155775198#0 -155775200#1 152227691#0 152227691#1 152227691#2 -850817949 850817949"/>
    </vehicle>
    <vehicle id="17" type="td_0" depart="6.12" departLane="best" departPos="random" departSpeed="max">
        <route edges="1149579537#2 827332718 1149579536#4 1149579536#5 1149579536#7 721131934#0 721131934#1 721131934#3 721131934#4 721131934#5 721131934#6 721131934#7 1149580107#0 1149580107#1 1149580107#2 1149580107#3 1149580107#4 482169086#0 442885101#0 442885101#1 442885101#2 442885359#0 31905190#0"/>
    </vehicle>
    <vehicle id="18" type="td_0" depart="6.48" departLane="best" departPos="random" departSpeed="max">
        <route edges="721131958#1 850475200 721131946#2 721131946#3 721131946#5 721131946#6 721131946#8 721131946#9 721131946#11 721131946#14 708790255#0"/>
    </vehicle>
    <vehicle id="19" type="td_0" depart="6.84" departLane="best" departPos="random" departSpeed="max">
        <route edges="721131963#1 721131961 721131960#1 721131960#4 721131960#5 857958820#0 857958820#1 722464592 722464593#1 -205021436#1 -205021436#0 -1307054560#5 -1307054560#4 -1307054560#3 -1307054560#2 -1307054560#1 -1307054560#0 1117528626#0 723990057#6 723990057#7 -155775200#1 482169086#0 442885101#0"/>
    </vehicle>
    <vehicle id="20" type="td_0" depart="7.20" departLane="best" departPos="random" departSpeed="max">
        <route edges="721131937#1 721131938 721131946#14 721131946#15 1149579536#0 1149579536#1 1149579536#2 1149579536#4 1149579536#5 1149579536#7 721131934#0 721131934#1 721131934#3 721131934#4 721131934#5 721131934#6 721131934#7 1149580107#0 1149580109 -1149580109"/>
    </vehicle>
    <vehicle id="21" type="td_0" depart="7.56" departLane="best" departPos="random" departSpeed="max">
        <route edges="-723990057#6 -723990057#5 -723990057#4 -766326319 100954129#5"/>
    </vehicle>
    <vehicle id="22" type="td_0" depart="7.92" departLane="best" departPos="random" departSpeed="max">
        <route edges="-155315680#1 155315680#0 -482169086#8 155315669#0 -723990057#7 -723990057#6"/>
    </vehicle>
    <vehicle id="23" type="td_0" depart="8.28" departLane="best" departPos="random" departSpeed="max">
        <route edges="-155315695#3 -155315695#1 -155315695#0 -1270367191#1 1270367192#1 -155775198#6 -155775198#5 -155775198#4 -155775198#3 -155775198#0 -723990057#7 -723990057#6 -723990057#5 -723990057#4 -723990057#3 -723990057#2 -1135316108 -934254484#1"/>
    </vehicle>
    <vehicle id="24" type="td_0" depart="8.64" departLane="best" departPos="random" departSpeed="max">
        <route edges="721126897#14 721126897#15 1149579536#0 1149579536#1 1149579536#2 1149579536#4 1149579536#5 1149579536#7"/>
    </vehicle>
    <vehicle id="25" type="td_0" depart="9.00" departLane="best" departPos="random" departSpeed="max">
        <route edges="1149579537#0 1149578944 1149579536#7 721131934#0 721131934#1 721131934#3 721131934#4 721131934#5 721131934#6 721131934#7 1149580107#0 1149580107#1 1149580107#2 1149580107#3 1149580107#4 482169086#0 442885101#0 442885101#1 442885101#2 -442885355#2 -442885355#1 778021896 -722464597#2 -722464597#1"/>
    </vehicle>
    <vehicle id="26" type="td_0" depart="9.36" departLane="best" departPos="random" departSpeed="max">
        <route edges="-851342124 152227691#10 152227691#12 152227691#13 1149579537#0 1149579537#1 1149579537#2 1149579537#4 1149579537#6 721131937#0 721131937#1 721131937#2 721131937#5 721131937#6 721131937#8 721131937#9 721131937#10 721131937#12 721131937#13 -721131953 -850699983#1 -850699983#0 -724005155#9 -724005155#8 -724005155#5 -724005155#4 -724005155#3 724005155#1"/>
    </vehicle>
    <vehicle id="27" type="td_0" depart="9.72" departLane="best" departPos="random" departSpeed="max">
        <route edges="721126897#4 721126897#5 721126897#7 721126897#12 721126897#13 721126897#14 721126897#15 721131937#0 721131937#1 721131937#2 721131937#5 721131937#6 721131937#8 721131937#9 721131937#10 721131937#12 721131937#13 -721131953 -850699983#1 -850699983#0 -724005155#9 -724005155#8 -724005155#5 -724005155#4 -724005155#3 -724005155#0 205021436#1 591704635#0 591704635#3"/>
    </vehicle>
    <vehicle id="28" type="td_0" depart="10.08" departLane="best" departPos="random" departSpeed="max">
        <route edges="-442885359#0 -442885101#2 -442885101#1 -442885101#0 -482169086#8 152227691#0 152227691#1 152227691#2 152227691#4 152227691#6 152227691#5 152227691#7 152227691#8 152227691#9 152227691#10 152227691#12 152227691#13 1149579537#0 1149579537#1 1149579537#2 1149579537#4 1149579537#6 721131937#0 721131937#1 721131937#2 721131937#5 721131937#6"/>
    </vehicle>
    <vehicle id="29" type="td_0" depart="10.44" departLane="best" departPos="random" departSpeed="max">
        <route edges="-442885101#2 -442885101#1 -442885101#0 -482169086#8 152227691#0 152227691#1 152227691#2 152227691#4 152227691#6 152227691#5 152227691#7 152227691#8 152227691#9 152227691#10 152227691#12 152227691#13 1149579537#0 1149579537#1 1149579537#2 1149579537#4"/>
    </vehicle>
    <vehicle id="30" type="td_0" depart="10.80" departLane="best" departPos="random" departSpeed="max">
        <route edges="857958820#1 722464592 722464593#1 -205021436#1 218100268 724005155#1 724005155#4 724005155#5 724005155#6 724005155#9 724005155#10 850699983#1 850475200 721131946#2 721131946#3 721131946#5 721131946#6 721131946#8 721131946#9 721131946#11 721131946#14 721131946#15 1119166765#1 1149578009 721126897#13 721126897#14 721126897#15"/>
    </vehicle>
    <vehicle id="31" type="td_0" depart="11.16" departLane="best" departPos="random" departSpeed="max">
        <route edges="31905190#0 155315682 -442885101#1 -442885101#0 -482169086#8 152227691#0 152227691#1 152227691#2 152227691#4 152227691#6 152227691#5 -850817946 721131934#7"/>
    </vehicle>
    <vehicle id="32" type="td_0" depart="11.52" departLane="best" departPos="random" departSpeed="max">
        <route edges="721131960#4 721131960#5 857958820#0 857958820#1 722464592 722464593#1 -205021436#1 218100268 724005155#1 724005155#4 724005155#5 724005155#6 724005155#9 724005155#10 850699983#1 850475200 721131946#2 721131946#3"/>
    </vehicle>
    <vehicle id="33" type="td_0" depart="11.88" departLane="best" departPos="random" departSpeed="max">
        <route edges="-723990057#6 723990057#6 723990057#7 -155775200#1 152227691#0 152227691#1 152227691#2 152227691#4 152227691#6 152227691#5 152227691#7 152227691#8 152227691#9 152227691#10 152227691#12 152227691#13 1149579537#0 1149579537#1 1149579537#2 1149579537#4 1149579537#6 1119166765#1 1149578009 -1149578009"/>
    </vehicle>
    <vehicle id="34" type="td_0" depart="12.24" departLane="best" departPos="random" departSpeed="max">
        <route edges="1119166765#1 1149578009 721126897#13 721126897#14 721126897#15 1149579536#0 1149579536#1 1149579536#2 1149579536#4 1149579536#5 1149579536#7 721131934#0 721131934#1 721131934#3 -851342124"/>
    </vehicle>
    <vehicle id="35" type="td_0" depart="12.60" departLane="best" departPos="random" departSpeed="max">
        <route edges="-722466950 350424623#5 722466948 -31905214 -482169086#8 152227691#0 152227691#1 152227691#2 152227691#4 152227691#6 152227691#5 152227691#7 152227691#8 152227691#9 152227691#10 152227691#12 152227691#13 1149579537#0 1149579537#1 1149579537#2 1149579537#4 1149579537#6 721131937#0 721131937#1 721131937#2 721131937#5 721131937#6 721131937#8 721131937#9 721131937#10 721131937#12 721131937#13 -721131953 -850699983#1 -850699983#0 -724005155#9 -724005155#8 -724005155#5 724005155#5"/>
    </vehicle>
    <vehicle id="36" type="td_0" depart="12.96" departLane="best" departPos="random" departSpeed="max">
        <route edges="721126897#5 721126897#7 721126897#12 721126897#13 721126897#14 721126897#15 1149579536#0 1149579536#1 1149579536#2 1149579536#4 1149579536#5 1149579536#7 721131934#0 721131934#1 721131934#3 721131934#4 721131934#5 721131934#6 721131934#7 1149580107#0 1149580107#1 1149580107#2"/>
    </vehicle>
    <vehicle id="37" type="td_0" depart="13.32" departLane="best" departPos="random" departSpeed="max">
        <route edges="722466950 -722466950 350424623#5 722466948 -31905214 -482169086#8 152227691#0 152227691#1 152227691#2 152227691#4"/>
    </vehicle>
    <vehicle id="38" type="td_0" depart="13.68" departLane="best" departPos="random" departSpeed="max">
        <route edges="-850817949 850817949 152227691#4 152227691#6 152227691#5 152227691#7 152227691#8 152227691#9 152227691#10 152227691#12 152227691#13 1149579537#0 1149579537#1 1149579537#2 1149579537#4 1149579537#6 721131937#0 721131937#1 721131937#2 721131937#5 721131937#6 721131937#8 721131937#9 721131937#10 721131937#12 721131937#13 -721131953 -850699983#1 -850699983#0 -724005155#9"/>
    </vehicle>
    <vehicle id="39" type="td_0" depart="14.04" departLane="best" departPos="random" departSpeed="max">
        <route edges="31905195#1 31905195#2 -482169086#8 152227691#0 152227691#1 152227691#2 152227691#4 152227691#6 152227691#5 152227691#7 -850817945"/>
    </vehicle>
    <vehicle id="40" type="td_0" depart="14.40" departLane="best" departPos="random" departSpeed="max">
        <route edges="442885101#0 442885101#1 442885101#2 -442885355#2 155315711 722464597#0"/>
    </vehicle>
    <vehicle id="41" type="td_0" depart="14.76" departLane="best" departPos="random" departSpeed="max">
        <route edges="1149580107#2 1149580107#3 1149580107#4 155315669#0 -723990057#7 -723990057#6 -723990057#5 -723990057#4 -723990057#3 -723990057#2 723990059 -31905201#2 -163652291 723990056 -723990054"/>
    </vehicle>
    <vehicle id="42" type="td_0" depart="15.12" departLane="best" departPos="random" departSpeed="max">
        <route edges="934254484#1 934254484#2 723990057#1 723990057#3 723990057#4 723990057#5 723990057#6 723990057#7 155775198#0 155775198#1 155775198#4 155775198#5 155775198#6 1270367192#2 1270367192#0 1270367191#0 155315695#0"/>
    </vehicle>
    <vehicle id="43" type="td_0" depart="15.48" departLane="best" departPos="random" departSpeed="max">
        <route edges="-155315693#8 -155315693#2 -155775198#3 -155775198#0 -155775200#1 152227691#0 152227691#1 -1149580110"/>
    </vehicle>
    <vehicle id="44" type="td_0" depart="15.84" departLane="best" departPos="random" departSpeed="max">
        <route edges="-155315719#1 -155315719#0 -152227697#3 350539817#0 -322191552 442885355#1 442885355#2 -442885101#2 -442885101#1 -442885101#0 -482169086#8 152227691#0 152227691#1 152227691#2 152227691#4 152227691#6 152227691#5 152227691#7 152227691#8 152227691#9 152227691#10 152227691#12 152227691#13 1149579537#0 1149579537#1 1149579537#2 1149579537#4 1149579537#6 1119166765#1 1149578009 721126897#13"/>
    </vehicle>
    <vehicle id="45" type="td_0" depart="16.20" departLane="best" departPos="random" departSpeed="max">
        <route edges="721131946#5 721131941 721131937#9 721131937#10 721131937#12 721131937#13 -721131953 -850699983#1 -850699983#0 -724005155#9 -724005155#8 -724005155#5 -724005155#4 -724005155#3 -724005155#0 -205021436#0 -1307054560#5 -1307054560#4 -1307054560#3 -1307054560#2 1307054560#2"/>
    </vehicle>
    <vehicle id="46" type="td_0" depart="16.56" departLane="best" departPos="random" departSpeed="max">
        <route edges="-1307054560#4 -1307054560#3 -1307054560#2 -1307054560#1 -1307054560#0 1117528626#0 723990057#6 723990057#7 -155775200#1 152227691#0 152227691#1 152227691#2 152227691#4 152227691#6 152227691#5 152227691#7 152227691#8 152227691#9 152227691#10 152227691#12 152227691#13 1149579537#0 1149579537#1 1149579537#2 1149579537#4 1149579537#6"/>
    </vehicle>
    <vehicle id="47" type="td_0" depart="16.92" departLane="best" departPos="random" departSpeed="max">
        <route edges="934254484#0 934254484#1 934254484#2 723990057#1 723990057#3 723990057#4 723990057#5 723990057#6 723990057#7 155775198#0 155775198#1"/>
    </vehicle>
    <vehicle id="48" type="td_0" depart="17.28" departLane="best" departPos="random" departSpeed="max">
        <route edges="850817946 152227691#7 152227691#8 152227691#9 152227691#10 152227691#12 152227691#13 1149579537#0 1149579537#1 1149579537#2 1149579537#4 1149579537#6 721131937#0 721131937#1 721131937#2 721131937#5 721131937#6 721131937#8 721131937#9 721131937#10 721131937#12 721131937#13 721131954#0 721131954#2 -721131961 721131963#3"/>
    </vehicle>
    <vehicle id="49" type="td_0" depart="17.64" departLane="best" departPos="random" departSpeed="max">
        <route edges="-100954163#9 100954163#9 1117528626#0 723990057#6 723990057#7 -155775200#1 152227691#0 152227691#1 152227691#2 152227691#4 152227691#6 152227691#5 152227691#7 152227691#8 152227691#9 152227691#10 152227691#12 152227691#13 1149579537#0 1149579537#1 1149579537#2 1149579537#4 1149579537#6 721131937#0 721131937#1 721131937#2 721131937#5"/>
    </vehicle>
    <vehicle id="50" type="td_0" depart="18.00" departLane="best" departPos="random" departSpeed="max">
        <route edges="721131934#4 721131934#5 721131934#6 721131934#7 1149580107#0 1149580107#1 1149580107#2 1149580107#3 1149580107#4 155315669#0 -723990057#7 -723990057#6 -723990057#5 -723990057#4 -723990057#3 -723990057#2 723990059 -31905201#2 -163652291 163652291"/>
    </vehicle>
    <vehicle id="51" type="td_0" depart="18.36" departLane="best" departPos="random" departSpeed="max">
        <route edges="-851342124 152227691#10 152227691#12 152227691#13 1149579537#0 1149579537#1 1149579537#2 1149579537#4 1149579537#6 1119166765#1 1149578009 721126897#13 721126897#14 721126897#15"/>
    </vehicle>
    <vehicle id="52" type="td_0" depart="18.72" departLane="best" departPos="random" departSpeed="max">
        <route edges="-155315719#15 -155315719#8 -155315719#2 -155315719#1 -155315719#0 -152227697#3 350539817#0 -322191552 778021896 778021895 152227686#2 152227686#3"/>
    </vehicle>
    <vehicle id="53" type="td_0" depart="19.08" departLane="best" departPos="random" departSpeed="max">
        <route edges="152227691#12 -1149579534 721131934#1 721131934#3 721131934#4 721131934#5 721131934#6 721131934#7 1149580107#0 1149580107#1 1149580107#2 1149580107#3 1149580107#4 482169086#0 442885101#0 442885101#1 442885101#2 -442885355#2 -442885355#1 778021896 778021895"/>
    </vehicle>
    <vehicle id="54" type="td_0" depart="19.44" departLane="best" departPos="random" departSpeed="max">
        <route edges="155315680#0 -482169086#8"/>
    </vehicle>
    <vehicle id="55" type="td_0" depart="19.80" departLane="best" departPos="random" departSpeed="max">
        <route edges="722466948 -31905214 -482169086#8 152227691#0 152227691#1 152227691#2 152227691#4 152227691#6 152227691#5 152227691#7 152227691#8 152227691#9 152227691#10 152227691#12 152227691#13 1149579537#0 1149579537#1 1149579537#2 1149579537#4 1149579537#6 721131937#0 721131937#1 721131937#2 721131937#5 721131937#6 721131937#8 721131937#9 721131937#10 721131937#12 721131937#13 721131954#0 721131954#2 721131960#1 721131960#4 721131960#5 721131966#0 721131966#1"/>
    </vehicle>
    <vehicle id="56" type="td_0" depart="20.16" departLane="best" departPos="random" departSpeed="max">
        <route edges="1056899464#1 -722464598 31905195#1 31905195#2 -482169086#8 152227691#0 152227691#1 152227691#2 152227691#4 152227691#6 152227691#5 152227691#7 152227691#8 152227691#9 152227691#10 152227691#12 152227691#13 1149579537#0 1149579537#1 1149579537#2 1149579537#4 1149579537#6 1119166765#1 1149578009 721126897#13 721126897#14 721126897#15"/>
    </vehicle>
    <vehicle id="57" type="td_0" depart="20.52" departLane="best" departPos="random" departSpeed="max">
        <route edges="591704635#0 -722464595 722464593#1 -205021436#1 -205021436#0 -1307054560#5 -1307054560#4 -1307054560#3 -1307054560#2 -1307054560#1 -1307054560#0 1117528626#0 723990057#6 723990057#7 -155775200#1 482169086#0 31905214 -31905214"/>
    </vehicle>
    <vehicle id="58" type="td_0" depart="20.88" departLane="best" departPos="random" departSpeed="max">
        <route edges="721131943 721131937#13 -721131953 -850699983#1 -850699983#0 -724005155#9 -724005155#8 -724005155#5 -724005155#4 -724005155#3 -724005155#0 -205021436#0 205021436#0"/>
    </vehicle>
    <vehicle id="59" type="td_0" depart="21.24" departLane="best" departPos="random" departSpeed="max">
        <route edges="721131946#2 -721131942 721131937#12 721131937#13 -721131953 -850699983#1 -850699983#0 -724005155#9 -724005155#8 -724005155#5 -724005155#4 -724005155#3 -724005155#0 -205021436#0 -1307054560#5 -1307054560#4 -1307054560#3 -1307054560#2 -1307054560#1 -1307054560#0 1117528626#0 723990057#6 723990057#7 155775198#0 155775198#1 155775198#4"/>
    </vehicle>
    <vehicle id="60" type="td_0" depart="21.60" departLane="best" departPos="random" departSpeed="max">
        <route edges="-100954129#0 -155775198#0 -155775200#1 152227691#0 152227691#1 152227691#2 152227691#4 152227691#6 152227691#5 152227691#7 152227691#8 152227691#9 152227691#10 152227691#12 152227691#13 1149579537#0 1149579537#1 1149579537#2 1149579537#4 1149579537#6 1119166765#1 1119166765#3 1119166765#6"/>
    </vehicle>
    <vehicle id="61" type="td_0" depart="21.96" departLane="best" departPos="random" departSpeed="max">
        <route edges="-1117528626#1 -1117528627#2 -723990057#7 -723990057#6 723990057#6 723990057#7"/>
    </vehicle>
    <vehicle id="62" type="td_0" depart="22.32" departLane="best" departPos="random" departSpeed="max">
        <route edges="721131967 721131962 721131960#4"/>
    </vehicle>
    <vehicle id="63" type="td_0" depart="22.68" departLane="best" departPos="random" departSpeed="max">
        <route edges="1119166764#0 857958820#0 857958820#1 722464592 722464593#1 -205021436#1 -205021436#0 -1307054560#5 -1307054560#4 -1307054560#3 -1307054560#2 -1307054560#1 -1307054560#0 1117528626#0 723990057#6 723990057#7 155775198#0 155775198#1 155775198#4 155775198#5 155775198#6 1270367192#2 1270367192#0 1270367191#0 -1270367191#1"/>
    </vehicle>
    <vehicle id="64" type="td_0" depart="23.04" departLane="best" departPos="random" departSpeed="max">
        <route edges="-155315688#0 -1056899464#0 155315680#0 -482169086#8 155315669#0"/>
    </vehicle>
    <vehicle id="65" type="td_0" depart="23.40" departLane="best" departPos="random" departSpeed="max">
        <route edges="-152227686#1 -152227686#0 -1056899464#1 -1056899464#0 155315680#0 -482169086#8 152227691#0 152227691#1 152227691#2 152227691#4 152227691#6 152227691#5 152227691#7 152227691#8 152227691#9 152227691#10 152227691#12 152227691#13 1149579537#0 1149579537#1 1149579537#2 1149579537#4 1149579537#6 721131937#0 721131937#1 721131938 721131946#14"/>
    </vehicle>
    <vehicle id="66" type="td_0" depart="23.76" departLane="best" departPos="random" departSpeed="max">
        <route edges="721131946#11 721131946#14 721131946#15 1149579536#0 1149579536#1 1149579536#2 1149579536#4 1149579536#5 1149579536#7 721131934#0 721131934#1 721131934#3 721131934#4 721131934#5 721131934#6 721131934#7 1149580107#0 1149580107#1 1149580107#2 1149580107#3 1149580107#4 155315669#0 155775198#0 155775198#1 155775198#4 155775198#5 155775198#6 1270367192#2 1270367192#0 1270367192#1 -155775198#6"/>
    </vehicle>
    <vehicle id="67" type="td_0" depart="24.12" departLane="best" departPos="random" departSpeed="max">
        <route edges="152227691#6 -1149580108 1149580107#0 1149580107#1 1149580107#2 1149580107#3 1149580107#4 155315669#0 155775198#0 155775198#1 155775198#4 155775198#5 155775198#6 1270367192#2 31905181#0 31905181#1 31905181#4"/>
    </vehicle>
    <vehicle id="68" type="td_0" depart="24.48" departLane="best" departPos="random" departSpeed="max">
        <route edges="-850817949 850817949 152227691#4 152227691#6 152227691#5 152227691#7 152227691#8 152227691#9 152227691#10 152227691#12 152227691#13 1149579537#0 1149579537#1 1149579537#2 1149579537#4 1149579537#6 721131937#0 721131937#1 721131937#2 721131937#5 721131937#6 721131937#8 721131937#9 721131937#10 721131937#12 721131937#13 721131954#0 721131954#2 721131960#1 721131960#4 721131960#5 721131966#0 721131966#1"/>
    </vehicle>
    <vehicle id="69" type="td_0" depart="24.84" departLane="best" departPos="random" departSpeed="max">
        <route edges="1270367191#2 -322191552 778021896 -722464597#2"/>
    </vehicle>
    <vehicle id="70" type="td_0" depart="25.20" departLane="best" departPos="random" departSpeed="max">
        <route edges="155775198#6 1270367192#2 1270367192#0 1270367192#1 -155775198#6 -155775198#5 -155775198#4 -155775198#3 -155775198#0 -155775200#1 152227691#0 152227691#1 152227691#2 152227691#4 152227691#6 152227691#5 152227691#7 152227691#8 152227691#9 152227691#10 152227691#12 152227691#13 1149579537#0 1149579537#1 1149579537#2 1149579537#4 1149579537#6 721131937#0 721131937#1 721131937#2 721131937#5 721131937#6 721131937#8"/>
    </vehicle>
    <vehicle id="71" type="td_0" depart="25.56" departLane="best" departPos="random" departSpeed="max">
        <route edges="-721131967 722464591#3 721131963#0 721131963#1 721131963#3 721131958#1 850475200 721131946#2 721131946#3 721131946#5 721131946#6 721131946#8 721131946#9 721131946#11 721131946#14 721131946#15 1119166765#1 1119166765#3 1119166765#6 1119166765#12"/>
    </vehicle>
    <vehicle id="72" type="td_0" depart="25.92" departLane="best" departPos="random" departSpeed="max">
        <route edges="934254484#0 934254484#1 934254484#2 723990057#1 723990057#3 723990057#4 723990057#5 723990057#6 723990057#7 -155775200#1 152227691#0 152227691#1 152227691#2 152227691#4 152227691#6 152227691#5 152227691#7 152227691#8 152227691#9 152227691#10 152227691#12 152227691#13 1149579537#0 1149579537#1 1149579537#2 1149579537#4 1149579537#6 1119166765#1 1119166765#3 1119166765#6 721131932 721126897#5 721126897#7"/>
    </vehicle>
    <vehicle id="73" type="td_0" depart="26.28" departLane="best" departPos="random" departSpeed="max">
        <route edges="152227686#1 152227686#2 722464599#0 442885355#1 155315711"/>
    </vehicle>
    <vehicle id="74" type="td_0" depart="26.64" departLane="best" departPos="random" departSpeed="max">
        <route edges="-155775198#4 -155775198#3 -155775198#0 -723990057#7 -723990057#6 -723990057#5 -723990057#4 -723990057#3 -723990057#2"/>
    </vehicle>
    <vehicle id="75" type="td_0" depart="27.00" departLane="best" departPos="random" departSpeed="max">